CPDS_validation_cosim/Distribution/Bus11/IEEE34Bus/ieee34-1_Curr_Seq.Txt

SYMMETRICAL COMPONENT CURRENTS BY CIRCUIT ELEMENT (first 3 phases)

Element             Term      I1         I2         %I2/I1    I0         %I0/I1   %Normal %Emergency

"VSOURCE.SOURCE" ..   1      12.242      0.20361     1.66  2.0625E-010     0.00      0.00     0.00
   -                  2      12.242      0.20361     1.66  2.0625E-010     0.00      0.00     0.00
"TRANSFORMER.SUBXF"   1      12.242      0.20361     1.66  7.9998E-011     0.00      5.37     3.94
   -                  2      33.925      0.56423     1.66     0.19804     0.58      0.00     0.00
"LINE.L1" .........   1      33.925      0.56423     1.66     0.19804     0.58      8.57     5.72
   -                  2      33.925       0.5594     1.65     0.19904     0.59      0.00     0.00
"LINE.L2" .........   1      25.745      0.55984     2.17     0.19848     0.77      6.53     4.35
   -                  2       25.74      0.55661     2.16     0.19915     0.77      0.00     0.00
"LINE.L3" .........   1       25.74      0.55661     2.16     0.19915     0.77      6.52     4.35
   -                  2      25.652      0.49675     1.94     0.21153     0.82      0.00     0.00
"LINE.L4" .........   1     0.06935            0     0.00           0     0.00      0.02     0.01
   -                  2  4.5475E-013            0     0.00           0     0.00      0.00     0.00
"LINE.L5" .........   1      25.649      0.49746     1.94     0.21124     0.82      6.48     4.32
   -                  2      25.556      0.42901     1.68     0.22511     0.88      0.00     0.00
"LINE.L6" .........   1      25.556      0.42901     1.68     0.22511     0.88      6.44     4.29
   -                  2       25.49      0.37545     1.47     0.23596     0.93      0.00     0.00
"LINE.L7" .........   1      25.385      0.42525     1.68     0.18171     0.72      6.41     4.27
   -                  2      25.385      0.42523     1.68     0.18172     0.72      0.00     0.00
"LINE.L8" .........   1      0.7461            0     0.00           0     0.00      0.19     0.12
   -                  2     0.72605            0     0.00           0     0.00      0.00     0.00
"LINE.L9" .........   1      25.354      0.23308     0.92     0.12689     0.50      6.41     4.27
   -                  2      25.334      0.21738     0.86     0.12683     0.50      0.00     0.00
"LINE.L10" ........   1     0.72605            0     0.00           0     0.00      0.18     0.12
   -                  2     0.16121            0     0.00           0     0.00      0.00     0.00
"LINE.L11" ........   1     0.16121            0     0.00           0     0.00      0.04     0.03
   -                  2           0            0     0.00           0     0.00      0.00     0.00
"LINE.L12" ........   1    0.035316            0     0.00           0     0.00      0.01     0.01
   -                  2  9.0949E-013            0     0.00           0     0.00      0.00     0.00
"LINE.L13" ........   1      25.333      0.21207     0.84     0.11542     0.46      6.39     4.26
   -                  2      25.331      0.21077     0.83     0.11541     0.46      0.00     0.00
"LINE.L14" ........   1      25.331      0.21077     0.83     0.11541     0.46      6.39     4.26
   -                  2      25.295      0.17964     0.71     0.11546     0.46      0.00     0.00
"LINE.L15" ........   1      24.312      0.17935     0.74     0.11531     0.47      6.13     4.09
   -                  2      24.311      0.17857     0.73     0.11532     0.47      0.00     0.00
"LINE.L16" ........   1      15.348     0.061943     0.40    0.026609     0.17      3.86     2.57
   -                  2      15.305     0.054988     0.36     0.02652     0.17      0.00     0.00
"LINE.L17" ........   1      2.4516     0.023455     0.96     0.02135     0.87      0.62     0.41
   -                  2      2.4716     0.022067     0.89     0.02149     0.87      0.00     0.00
"LINE.L18" ........   1        14.5     0.023879     0.16    0.011937     0.08      3.63     2.42
   -                  2      14.497      0.02351     0.16    0.011879     0.08      0.00     0.00
"LINE.L19" ........   1     0.78445    0.0016744     0.21  0.00030227     0.04      0.20     0.13
   -                  2     0.79311   0.00021931     0.03  0.00021789     0.03      0.00     0.00
"LINE.L20" ........   1    0.024504     0.019914    81.27    0.019845    80.99      0.02     0.01
   -                  2    0.019867     0.019867   100.00    0.019867   100.00      0.00     0.00
"LINE.L21" ........   1      14.497      0.02351     0.16    0.011879     0.08      3.63     2.42
   -                  2      14.482     0.021793     0.15    0.011612     0.08      0.00     0.00
"LINE.L22" ........   1       9.834     0.013685     0.14    0.008065     0.08      2.46     1.64
   -                  2      9.7742     0.013214     0.14   0.0083316     0.09      0.00     0.00
"LINE.L23" ........   1      9.7742     0.013214     0.14   0.0083316     0.09      2.45     1.63
   -                  2      9.7656     0.013383     0.14   0.0083869     0.09      0.00     0.00
"LINE.L24" ........   1      25.385      0.42523     1.68     0.18172     0.72      6.41     4.27
   -                  2      25.384      0.42471     1.67     0.18182     0.72      0.00     0.00
"LINE.L25" ........   1      23.075     0.090211     0.39    0.026616     0.12      5.79     3.86
   -                  2      23.075     0.090194     0.39    0.026616     0.12      0.00     0.00
"TRANSFORMER.XFM1"    1      11.277     0.056425     0.50  0.00010649     0.00     88.85    65.16
   -                  2      67.498      0.33774     0.50   0.0006374     0.00      0.00     0.00
"LINE.L26" ........   1     0.26905            0     0.00           0     0.00      0.07     0.04
   -                  2  5.6843E-014            0     0.00           0     0.00      0.00     0.00
"LINE.L27" ........   1      24.299      0.15453     0.64    0.031755     0.13      6.12     4.08
   -                  2      24.228     0.094722     0.39    0.027946     0.12      0.00     0.00
"LINE.L28" ........   1    0.019202            0     0.00           0     0.00      0.00     0.00
   -                  2  2.0337E-012            0     0.00           0     0.00      0.00     0.00
"LINE.L29" ........   1      15.302     0.053196     0.35    0.031255     0.20      3.84     2.56
   -                  2      15.251      0.04634     0.30    0.030977     0.20      0.00     0.00
"LINE.L30" ........   1     0.74496     0.021502     2.89    0.019832     2.66      0.19     0.13
   -                  2     0.76992     0.020162     2.62    0.019997     2.60      0.00     0.00
"LINE.L31" ........   1      0.0596            0     0.00           0     0.00      0.01     0.01
   -                  2  4.5475E-013            0     0.00           0     0.00      0.00     0.00
"LINE.L32" ........   1      67.498      0.33774     0.50   0.0006374     0.00     16.96    11.30
   -                  2      67.511      0.33574     0.50  6.9271E-014     0.00      0.00     0.00
"CAPACITOR.C844" ..   1      7.1657    0.0088256     0.12   0.0055082     0.08      0.00     0.00
   -                  2      7.1657    0.0088256     0.12   0.0055082     0.08      0.00     0.00
"CAPACITOR.C848" ..   1      10.752     0.013382     0.12   0.0083869     0.08      0.00     0.00
   -                  2      10.752     0.013382     0.12   0.0083869     0.08      0.00     0.00
"TRANSFORMER.REG1A"   1      25.513            0     0.00           0     0.00      1.67     1.22
   -                  2      25.354            0     0.00           0     0.00      0.00     0.00
"TRANSFORMER.REG1B"   1      25.623            0     0.00           0     0.00      1.67     1.23
   -                  2      25.623            0     0.00           0     0.00      0.00     0.00
"TRANSFORMER.REG1C"   1      25.345            0     0.00           0     0.00      1.66     1.21
   -                  2      25.187            0     0.00           0     0.00      0.00     0.00
"TRANSFORMER.REG2A"   1      24.211            0     0.00           0     0.00      1.58     1.16
   -                  2      23.058            0     0.00           0     0.00      0.00     0.00
"TRANSFORMER.REG2B"   1      24.333            0     0.00           0     0.00      1.59     1.17
   -                  2      23.175            0     0.00           0     0.00      0.00     0.00
"TRANSFORMER.REG2C"   1      24.141            0     0.00           0     0.00      1.58     1.16
   -                  2      22.992            0     0.00           0     0.00      0.00     0.00
"LOAD.S802" .......   1      9.8042   0.00049278     0.01   0.0005851     0.01      0.00     0.00
"LOAD.S860" .......   1      1.7293     0.001309     0.08   0.0021002     0.12      0.00     0.00
"LOAD.S840" .......   1     0.79311   0.00021882     0.03  0.00021885     0.03      0.00     0.00
"LOAD.S844" .......   1      12.255     0.015084     0.12   0.0093989     0.08      0.00     0.00
"LOAD.S848" .......   1       1.729   2.6746E-006     0.00  2.0817E-016     0.00      0.00     0.00
"LOAD.S830" .......   1      1.1444   0.00035284     0.03  0.00029178     0.03      0.00     0.00
"LOAD.S890" .......   1      67.511      0.33569     0.50  5.6009E-015     0.00      0.00     0.00
