CPDS_validation_cosim/Distribution/Bus11/IEEE34Bus/ieee34-1_Losses.Txt

LOSSES REPORT

Power Delivery Element Loss Report

Element                  kW Losses    % of Power   kvar Losses

"Transformer.SUBXF"   0.00121,     0.00     0.0351056
"Line.L1"             2.67970,     0.15     -0.056114
"Line.L2"             1.74428,     0.10     -0.0729071
"Line.L3"            31.60656,     1.81     -1.5014
"Line.L4"             0.00115,     0.01     -1.02225
"Line.L5"            36.30256,     2.14     -0.881405
"Line.L6"            28.90050,     1.74     0.283352
"Line.L7"             0.01357,     0.00     -0.000473644
"Line.L8"             0.09011,     0.07     -0.247397
"Line.L9"            12.37657,     0.80     -1.09616
"Line.L10"            3.52068,     2.26     -6.24906
"Line.L11"            0.20316,     0.30     -2.14755
"Line.L12"            0.00385,     0.02     -0.510763
"Line.L13"            0.95942,     0.06     -0.115602
"Line.L14"           23.19325,     1.56     -2.64782
"Line.L15"            0.58836,     0.04     -0.064304
"Line.L16"            2.22726,     0.23     -2.56406
"Line.L17"            0.13216,     0.04     -1.44061
"Line.L18"            0.05698,     0.01     -0.18047
"Line.L19"            0.00146,     0.00     -0.640285
"Line.L20"            0.00044,      0.0     -0.208378
"Line.L21"            0.27285,     0.05     -0.870742
"Line.L22"            0.32652,     0.31     -2.55439
"Line.L23"            0.04865,     0.07     -0.371406
"Line.L24"            0.44313,     0.03     -0.00270522
"Line.L25"            0.00972,     0.00     -0.00267584
"Transformer.XFM1"    9.61406,     2.09     20.6454
"Line.L26"            0.00029,      0.0     -3.81984
"Line.L27"           41.52595,     2.84     -3.90048
"Line.L28"            0.00000,      0.0     -0.292282
"Line.L29"            2.54563,     0.27     -3.08405
"Line.L30"            0.03614,     0.03     -1.9791
"Line.L31"            0.00193,     0.01     -0.880227
"Line.L32"           32.75730,     7.29     24.1656
"Capacitor.C844"      0.00000,      0.0     -322.783
"Capacitor.C848"      0.00000,      0.0     -484.378
"Transformer.REG1A"   0.07821,     0.01     0.215344
"Transformer.REG1B"   0.04716,     0.01     0.138372
"Transformer.REG1C"   0.06419,     0.01     0.180709
"Transformer.REG2A"   0.04775,     0.01     0.139705
"Transformer.REG2B"   0.04223,     0.01     0.125682
"Transformer.REG2C"   0.05577,     0.01     0.159664

LINE LOSSES=                       222.6 kW
TRANSFORMER LOSSES=                 10.0 kW

TOTAL LOSSES=                      232.5 kW

TOTAL LOAD POWER =                1767.7 kW
Percent Losses for Circuit =     13.15 %
