CPDS_validation_cosim/Distribution/Bus11/IEEE34Bus/ieee34-1_Power_elem_MVA.txt

CIRCUIT ELEMENT POWER FLOW

(Power Flow into element from indicated Bus)

Power Delivery Elements

  Bus     Phase     MW     +j   Mvar         MVA         PF

ELEMENT = "Vsource.SOURCE"
SOURCEBUS     1        -0.5 +j     -0.0        0.5       1.0000
SOURCEBUS     2        -0.5 +j     -0.0        0.5       0.9994
SOURCEBUS     3        -0.5 +j     -0.0        0.5       0.9998
   TERMINAL TOTAL .    -1.5 +j     -0.0        1.5       0.9998
SOURCEBUS     0         0.0 +j      0.0        0.0       1.0000
SOURCEBUS     0         0.0 +j      0.0        0.0       1.0000
SOURCEBUS     0         0.0 +j      0.0        0.0       1.0000
   TERMINAL TOTAL .     0.0 +j      0.0        0.0       1.0000

ELEMENT = "Transformer.SUBXF"
SOURCEBUS     1         0.5 +j      0.0        0.5       1.0000
SOURCEBUS     2         0.5 +j      0.0        0.5       0.9994
SOURCEBUS     3         0.5 +j      0.0        0.5       0.9998
SOURCEBUS     0         0.0 +j      0.0        0.0       1.0000
   TERMINAL TOTAL .     1.5 +j      0.0        1.5       0.9998
800           1        -0.5 +j     -0.0        0.5       1.0000
800           2        -0.5 +j     -0.0        0.5       0.9998
800           3        -0.5 +j     -0.0        0.5       0.9992
800           0         0.0 +j      0.0        0.0       1.0000
   TERMINAL TOTAL .    -1.5 +j     -0.0        1.5       0.9998

ELEMENT = "Line.L1"
800           1         0.5 +j      0.0        0.5       1.0000
800           2         0.5 +j      0.0        0.5       0.9998
800           3         0.5 +j      0.0        0.5       0.9992
   TERMINAL TOTAL .     1.5 +j      0.0        1.5       0.9998
802           1        -0.5 +j     -0.0        0.5       1.0000
802           2        -0.5 +j     -0.0        0.5       0.9998
802           3        -0.5 +j     -0.0        0.5       0.9992
   TERMINAL TOTAL .    -1.5 +j     -0.0        1.5       0.9998

ELEMENT = "Line.L2"
802           1         0.4 +j     -0.1        0.4      -0.9823
802           2         0.4 +j     -0.1        0.4      -0.9871
802           3         0.4 +j     -0.1        0.4      -0.9905
   TERMINAL TOTAL .     1.1 +j     -0.2        1.2      -0.9868
806           1        -0.4 +j      0.1        0.4      -0.9824
806           2        -0.4 +j      0.1        0.4      -0.9872
806           3        -0.4 +j      0.1        0.4      -0.9906
   TERMINAL TOTAL .    -1.1 +j      0.2        1.2      -0.9869

ELEMENT = "Line.L3"
806           1         0.4 +j     -0.1        0.4      -0.9824
806           2         0.4 +j     -0.1        0.4      -0.9872
806           3         0.4 +j     -0.1        0.4      -0.9906
   TERMINAL TOTAL .     1.1 +j     -0.2        1.2      -0.9869
808           1        -0.4 +j      0.1        0.4      -0.9847
808           2        -0.4 +j      0.1        0.4      -0.9889
808           3        -0.4 +j      0.0        0.4      -0.9919
   TERMINAL TOTAL .    -1.1 +j      0.2        1.1      -0.9887

ELEMENT = "Line.L4"
808           2         0.0 +j     -0.0        0.0      -0.0000
   TERMINAL TOTAL .     0.0 +j     -0.0        0.0      -0.0000
810           2         0.0 +j      0.0        0.0       0.5102
   TERMINAL TOTAL .     0.0 +j      0.0        0.0       0.5102

ELEMENT = "Line.L5"
808           1         0.4 +j     -0.1        0.4      -0.9847
808           2         0.4 +j     -0.1        0.4      -0.9893
808           3         0.4 +j     -0.0        0.4      -0.9919
   TERMINAL TOTAL .     1.1 +j     -0.2        1.1      -0.9888
812           1        -0.4 +j      0.1        0.4      -0.9872
812           2        -0.4 +j      0.1        0.4      -0.9910
812           3        -0.4 +j      0.0        0.4      -0.9933
   TERMINAL TOTAL .    -1.1 +j      0.2        1.1      -0.9907

ELEMENT = "Line.L6"
812           1         0.4 +j     -0.1        0.4      -0.9872
812           2         0.4 +j     -0.1        0.4      -0.9910
812           3         0.4 +j     -0.0        0.4      -0.9933
   TERMINAL TOTAL .     1.1 +j     -0.2        1.1      -0.9907
814           1        -0.4 +j      0.1        0.4      -0.9890
814           2        -0.4 +j      0.0        0.4      -0.9923
814           3        -0.4 +j      0.0        0.4      -0.9943
   TERMINAL TOTAL .    -1.1 +j      0.1        1.1      -0.9920

ELEMENT = "Line.L7"
814R          1         0.4 +j     -0.1        0.4      -0.9890
814R          2         0.4 +j     -0.0        0.4      -0.9923
814R          3         0.4 +j     -0.0        0.4      -0.9942
   TERMINAL TOTAL .     1.1 +j     -0.1        1.1      -0.9920
850           1        -0.4 +j      0.1        0.4      -0.9890
850           2        -0.4 +j      0.0        0.4      -0.9923
850           3        -0.4 +j      0.0        0.4      -0.9942
   TERMINAL TOTAL .    -1.1 +j      0.1        1.1      -0.9920

ELEMENT = "Line.L8"
816           1         0.0 +j     -0.0        0.0      -0.0005
   TERMINAL TOTAL .     0.0 +j     -0.0        0.0      -0.0005
818           1        -0.0 +j      0.0        0.0      -0.0005
   TERMINAL TOTAL .    -0.0 +j      0.0        0.0      -0.0005

ELEMENT = "Line.L9"
816           1         0.4 +j     -0.0        0.4      -0.9929
816           2         0.4 +j     -0.0        0.4      -0.9923
816           3         0.4 +j     -0.0        0.4      -0.9942
   TERMINAL TOTAL .     1.1 +j     -0.1        1.1      -0.9932
824           1        -0.4 +j      0.0        0.4      -0.9933
824           2        -0.4 +j      0.0        0.4      -0.9927
824           3        -0.4 +j      0.0        0.4      -0.9945
   TERMINAL TOTAL .    -1.1 +j      0.1        1.1      -0.9935

ELEMENT = "Line.L10"
818           1         0.0 +j     -0.0        0.0      -0.0005
   TERMINAL TOTAL .     0.0 +j     -0.0        0.0      -0.0005
820           1        -0.0 +j      0.0        0.0      -0.0000
   TERMINAL TOTAL .    -0.0 +j      0.0        0.0      -0.0000

ELEMENT = "Line.L11"
820           1         0.0 +j     -0.0        0.0      -0.0000
   TERMINAL TOTAL .     0.0 +j     -0.0        0.0      -0.0000
822           1         0.0 +j      0.0        0.0       1.0000
   TERMINAL TOTAL .     0.0 +j      0.0        0.0       1.0000

ELEMENT = "Line.L12"
824           2         0.0 +j     -0.0        0.0      -0.0000
   TERMINAL TOTAL .     0.0 +j     -0.0        0.0      -0.0000
826           2        -0.0 +j      0.0        0.0      -0.8470
   TERMINAL TOTAL .    -0.0 +j      0.0        0.0      -0.8470

ELEMENT = "Line.L13"
824           1         0.4 +j     -0.0        0.4      -0.9933
824           2         0.4 +j     -0.0        0.4      -0.9928
824           3         0.4 +j     -0.0        0.4      -0.9945
   TERMINAL TOTAL .     1.1 +j     -0.1        1.1      -0.9936
828           1        -0.4 +j      0.0        0.4      -0.9934
828           2        -0.4 +j      0.0        0.4      -0.9928
828           3        -0.4 +j      0.0        0.4      -0.9945
   TERMINAL TOTAL .    -1.1 +j      0.1        1.1      -0.9936

ELEMENT = "Line.L14"
828           1         0.4 +j     -0.0        0.4      -0.9934
828           2         0.4 +j     -0.0        0.4      -0.9928
828           3         0.4 +j     -0.0        0.4      -0.9945
   TERMINAL TOTAL .     1.1 +j     -0.1        1.1      -0.9936
830           1        -0.4 +j      0.0        0.4      -0.9942
830           2        -0.4 +j      0.0        0.4      -0.9935
830           3        -0.4 +j      0.0        0.4      -0.9951
   TERMINAL TOTAL .    -1.1 +j      0.1        1.1      -0.9943

ELEMENT = "Line.L15"
830           1         0.3 +j     -0.0        0.3      -0.9913
830           2         0.4 +j     -0.0        0.4      -0.9905
830           3         0.3 +j     -0.0        0.3      -0.9925
   TERMINAL TOTAL .     1.0 +j     -0.1        1.1      -0.9915
854           1        -0.3 +j      0.0        0.3      -0.9914
854           2        -0.3 +j      0.0        0.4      -0.9906
854           3        -0.3 +j      0.0        0.3      -0.9925
   TERMINAL TOTAL .    -1.0 +j      0.1        1.1      -0.9915

ELEMENT = "Line.L16"
832           1         0.2 +j     -0.1        0.2      -0.8489
832           2         0.2 +j     -0.1        0.2      -0.8491
832           3         0.2 +j     -0.1        0.2      -0.8511
   TERMINAL TOTAL .     0.6 +j     -0.4        0.7      -0.8497
858           1        -0.2 +j      0.1        0.2      -0.8508
858           2        -0.2 +j      0.1        0.2      -0.8505
858           3        -0.2 +j      0.1        0.2      -0.8525
   TERMINAL TOTAL .    -0.6 +j      0.4        0.7      -0.8513

ELEMENT = "Line.L17"
834           1         0.0 +j      0.0        0.0       0.8025
834           2         0.0 +j      0.0        0.0       0.8157
834           3         0.0 +j      0.0        0.0       0.8002
   TERMINAL TOTAL .     0.1 +j      0.1        0.1       0.8062
860           1        -0.0 +j     -0.0        0.0       0.7959
860           2        -0.0 +j     -0.0        0.0       0.8086
860           3        -0.0 +j     -0.0        0.0       0.7944
   TERMINAL TOTAL .    -0.1 +j     -0.1        0.1       0.7997

ELEMENT = "Line.L18"
834           1         0.2 +j     -0.1        0.2      -0.7609
834           2         0.2 +j     -0.1        0.2      -0.7614
834           3         0.2 +j     -0.1        0.2      -0.7614
   TERMINAL TOTAL .     0.5 +j     -0.4        0.6      -0.7612
842           1        -0.2 +j      0.1        0.2      -0.7611
842           2        -0.2 +j      0.1        0.2      -0.7615
842           3        -0.2 +j      0.1        0.2      -0.7615
   TERMINAL TOTAL .    -0.5 +j      0.4        0.6      -0.7613

ELEMENT = "Line.L19"
836           1         0.0 +j      0.0        0.0       0.7982
836           2         0.0 +j      0.0        0.0       0.7989
836           3         0.0 +j      0.0        0.0       0.7971
   TERMINAL TOTAL .     0.0 +j      0.0        0.0       0.7981
840           1        -0.0 +j     -0.0        0.0       0.7894
840           2        -0.0 +j     -0.0        0.0       0.7894
840           3        -0.0 +j     -0.0        0.0       0.7894
   TERMINAL TOTAL .    -0.0 +j     -0.0        0.0       0.7894

ELEMENT = "Line.L20"
836           1        -0.0 +j     -0.0        0.0       0.0685
836           2         0.0 +j     -0.0        0.0      -0.0089
836           3        -0.0 +j     -0.0        0.0       0.0542
   TERMINAL TOTAL .     0.0 +j     -0.0        0.0      -0.0000
862           1        -0.0 +j     -0.0        0.0       0.3925
862           2        -0.0 +j      0.0        0.0      -0.0000
862           3         0.0 +j     -0.0        0.0      -0.9954
   TERMINAL TOTAL .    -0.0 +j      0.0        0.0      -0.0000

ELEMENT = "Line.L21"
842           1         0.2 +j     -0.1        0.2      -0.7611
842           2         0.2 +j     -0.1        0.2      -0.7615
842           3         0.2 +j     -0.1        0.2      -0.7615
   TERMINAL TOTAL .     0.5 +j     -0.4        0.6      -0.7613
844           1        -0.2 +j      0.1        0.2      -0.7616
844           2        -0.2 +j      0.1        0.2      -0.7619
844           3        -0.2 +j      0.1        0.2      -0.7619
   TERMINAL TOTAL .    -0.5 +j      0.4        0.6      -0.7618

ELEMENT = "Line.L22"
844           1         0.0 +j     -0.1        0.1      -0.1379
844           2         0.0 +j     -0.1        0.1      -0.1387
844           3         0.0 +j     -0.1        0.1      -0.1381
   TERMINAL TOTAL .     0.1 +j     -0.4        0.4      -0.1382
846           1        -0.0 +j      0.1        0.1      -0.1384
846           2        -0.0 +j      0.1        0.1      -0.1380
846           3        -0.0 +j      0.1        0.1      -0.1384
   TERMINAL TOTAL .    -0.1 +j      0.4        0.4      -0.1382

ELEMENT = "Line.L23"
846           1         0.0 +j     -0.1        0.1      -0.1384
846           2         0.0 +j     -0.1        0.1      -0.1380
846           3         0.0 +j     -0.1        0.1      -0.1384
   TERMINAL TOTAL .     0.1 +j     -0.4        0.4      -0.1382
848           1        -0.0 +j      0.1        0.1      -0.1384
848           2        -0.0 +j      0.1        0.1      -0.1379
848           3        -0.0 +j      0.1        0.1      -0.1384
   TERMINAL TOTAL .    -0.1 +j      0.4        0.4      -0.1382

ELEMENT = "Line.L24"
850           1         0.4 +j     -0.1        0.4      -0.9890
850           2         0.4 +j     -0.0        0.4      -0.9923
850           3         0.4 +j     -0.0        0.4      -0.9942
   TERMINAL TOTAL .     1.1 +j     -0.1        1.1      -0.9920
816           1        -0.4 +j      0.1        0.4      -0.9890
816           2        -0.4 +j      0.0        0.4      -0.9923
816           3        -0.4 +j      0.0        0.4      -0.9942
   TERMINAL TOTAL .    -1.1 +j      0.1        1.1      -0.9920

ELEMENT = "Line.L25"
852R          1         0.3 +j     -0.0        0.3      -0.9931
852R          2         0.3 +j     -0.0        0.3      -0.9933
852R          3         0.3 +j     -0.0        0.3      -0.9937
   TERMINAL TOTAL .     1.0 +j     -0.1        1.0      -0.9933
832           1        -0.3 +j      0.0        0.3      -0.9931
832           2        -0.3 +j      0.0        0.3      -0.9933
832           3        -0.3 +j      0.0        0.3      -0.9937
   TERMINAL TOTAL .    -1.0 +j      0.1        1.0      -0.9934

ELEMENT = "Transformer.XFM1"
832           1         0.1 +j      0.1        0.2       0.8784
832           2         0.1 +j      0.1        0.2       0.8754
832           3         0.1 +j      0.1        0.2       0.8747
832           0         0.0 +j      0.0        0.0       1.0000
   TERMINAL TOTAL .     0.4 +j      0.2        0.5       0.8762
888           1        -0.1 +j     -0.1        0.2       0.8906
888           2        -0.1 +j     -0.1        0.2       0.8876
888           3        -0.1 +j     -0.1        0.2       0.8869
888           0         0.0 +j      0.0        0.0       1.0000
   TERMINAL TOTAL .    -0.4 +j     -0.2        0.5       0.8884

ELEMENT = "Line.L26"
854           2         0.0 +j     -0.0        0.0      -0.0001
   TERMINAL TOTAL .     0.0 +j     -0.0        0.0      -0.0001
856           2         0.0 +j     -0.0        0.0      -0.8429
   TERMINAL TOTAL .     0.0 +j     -0.0        0.0      -0.8429

ELEMENT = "Line.L27"
854           1         0.3 +j     -0.0        0.3      -0.9914
854           2         0.3 +j     -0.0        0.4      -0.9920
854           3         0.3 +j     -0.0        0.3      -0.9925
   TERMINAL TOTAL .     1.0 +j     -0.1        1.1      -0.9920
852           1        -0.3 +j      0.0        0.3      -0.9931
852           2        -0.3 +j      0.0        0.3      -0.9934
852           3        -0.3 +j      0.0        0.3      -0.9937
   TERMINAL TOTAL .    -1.0 +j      0.1        1.0      -0.9934

ELEMENT = "Line.L28"
858           1         0.0 +j     -0.0        0.0      -0.0000
   TERMINAL TOTAL .     0.0 +j     -0.0        0.0      -0.0000
864           1         0.0 +j      0.0        0.0       0.9190
   TERMINAL TOTAL .     0.0 +j      0.0        0.0       0.9190

ELEMENT = "Line.L29"
858           1         0.2 +j     -0.1        0.2      -0.8513
858           2         0.2 +j     -0.1        0.2      -0.8505
858           3         0.2 +j     -0.1        0.2      -0.8525
   TERMINAL TOTAL .     0.6 +j     -0.4        0.7      -0.8514
834           1        -0.2 +j      0.1        0.2      -0.8535
834           2        -0.2 +j      0.1        0.2      -0.8522
834           3        -0.2 +j      0.1        0.2      -0.8543
   TERMINAL TOTAL .    -0.6 +j      0.4        0.7      -0.8533

ELEMENT = "Line.L30"
860           1         0.0 +j      0.0        0.0       0.8289
860           2         0.0 +j      0.0        0.0       0.8673
860           3         0.0 +j      0.0        0.0       0.8241
   TERMINAL TOTAL .     0.0 +j      0.0        0.0       0.8404
836           1        -0.0 +j     -0.0        0.0       0.8011
836           2        -0.0 +j     -0.0        0.0       0.8385
836           3        -0.0 +j     -0.0        0.0       0.7996
   TERMINAL TOTAL .    -0.0 +j     -0.0        0.0       0.8131

ELEMENT = "Line.L31"
862           2         0.0 +j     -0.0        0.0      -0.0000
   TERMINAL TOTAL .     0.0 +j     -0.0        0.0      -0.0000
838           2         0.0 +j     -0.0        0.0      -0.8344
   TERMINAL TOTAL .     0.0 +j     -0.0        0.0      -0.8344

ELEMENT = "Line.L32"
888           1         0.1 +j      0.1        0.2       0.8906
888           2         0.1 +j      0.1        0.2       0.8876
888           3         0.1 +j      0.1        0.2       0.8869
   TERMINAL TOTAL .     0.4 +j      0.2        0.5       0.8884
890           1        -0.1 +j     -0.1        0.1       0.8950
890           2        -0.1 +j     -0.1        0.2       0.8951
890           3        -0.1 +j     -0.1        0.1       0.8931
   TERMINAL TOTAL .    -0.4 +j     -0.2        0.4       0.8944

ELEMENT = "Capacitor.C844"
844           1         0.0 +j     -0.1        0.1       1.0000
844           2         0.0 +j     -0.1        0.1       1.0000
844           3         0.0 +j     -0.1        0.1       1.0000
   TERMINAL TOTAL .     0.0 +j     -0.3        0.3       1.0000
844           0         0.0 +j      0.0        0.0       1.0000
844           0         0.0 +j      0.0        0.0       1.0000
844           0         0.0 +j      0.0        0.0       1.0000
   TERMINAL TOTAL .     0.0 +j      0.0        0.0       1.0000

ELEMENT = "Capacitor.C848"
848           1         0.0 +j     -0.2        0.2       1.0000
848           2         0.0 +j     -0.2        0.2       1.0000
848           3        -0.0 +j     -0.2        0.2       0.0000
   TERMINAL TOTAL .    -0.0 +j     -0.5        0.5       0.0000
848           0         0.0 +j      0.0        0.0       1.0000
848           0         0.0 +j      0.0        0.0       1.0000
848           0         0.0 +j      0.0        0.0       1.0000
   TERMINAL TOTAL .     0.0 +j      0.0        0.0       1.0000

ELEMENT = "Transformer.REG1A"
814           1         0.4 +j     -0.1        0.4      -0.9890
814           0         0.0 +j      0.0        0.0       1.0000
   TERMINAL TOTAL .     0.4 +j     -0.1        0.4      -0.9890
814R          1        -0.4 +j      0.1        0.4      -0.9890
814R          0         0.0 +j      0.0        0.0       1.0000
   TERMINAL TOTAL .    -0.4 +j      0.1        0.4      -0.9890

ELEMENT = "Transformer.REG1B"
814           2         0.4 +j     -0.0        0.4      -0.9923
814           0         0.0 +j      0.0        0.0       1.0000
   TERMINAL TOTAL .     0.4 +j     -0.0        0.4      -0.9923
814R          2        -0.4 +j      0.0        0.4      -0.9923
814R          0         0.0 +j      0.0        0.0       1.0000
   TERMINAL TOTAL .    -0.4 +j      0.0        0.4      -0.9923

ELEMENT = "Transformer.REG1C"
814           3         0.4 +j     -0.0        0.4      -0.9943
814           0         0.0 +j      0.0        0.0       1.0000
   TERMINAL TOTAL .     0.4 +j     -0.0        0.4      -0.9943
814R          3        -0.4 +j      0.0        0.4      -0.9942
814R          0         0.0 +j      0.0        0.0       1.0000
   TERMINAL TOTAL .    -0.4 +j      0.0        0.4      -0.9942

ELEMENT = "Transformer.REG2A"
852           1         0.3 +j     -0.0        0.3      -0.9931
852           0         0.0 +j      0.0        0.0       1.0000
   TERMINAL TOTAL .     0.3 +j     -0.0        0.3      -0.9931
852R          1        -0.3 +j      0.0        0.3      -0.9931
852R          0         0.0 +j      0.0        0.0       1.0000
   TERMINAL TOTAL .    -0.3 +j      0.0        0.3      -0.9931

ELEMENT = "Transformer.REG2B"
852           2         0.3 +j     -0.0        0.3      -0.9934
852           0         0.0 +j      0.0        0.0       1.0000
   TERMINAL TOTAL .     0.3 +j     -0.0        0.3      -0.9934
852R          2        -0.3 +j      0.0        0.3      -0.9933
852R          0         0.0 +j      0.0        0.0       1.0000
   TERMINAL TOTAL .    -0.3 +j      0.0        0.3      -0.9933

ELEMENT = "Transformer.REG2C"
852           3         0.3 +j     -0.0        0.3      -0.9937
852           0         0.0 +j      0.0        0.0       1.0000
   TERMINAL TOTAL .     0.3 +j     -0.0        0.3      -0.9937
852R          3        -0.3 +j      0.0        0.3      -0.9937
852R          0         0.0 +j      0.0        0.0       1.0000
   TERMINAL TOTAL .    -0.3 +j      0.0        0.3      -0.9937

= = = = = = = = = = = = = = = = = = =  = = = = = = = = = = =  = =

Power Conversion Elements

  Bus     Phase     MW   +j  Mvar         MVA         PF

ELEMENT = "Load.S802"
802           1       0.1 +j    0.1        0.1       0.8682
802           2       0.1 +j    0.1        0.1       0.8682
802           3       0.1 +j    0.1        0.1       0.8682
802           0       0.0 +j    0.0        0.0       1.0000
  TERMINAL TOTAL  .     0.4 +j      0.2        0.4       0.8682

ELEMENT = "Load.S860"
860           1       0.0 +j    0.0        0.0       0.7809
860           2       0.0 +j    0.0        0.0       0.7809
860           3       0.0 +j    0.0        0.0       0.7809
860           0       0.0 +j    0.0        0.0       1.0000
  TERMINAL TOTAL  .     0.1 +j      0.0        0.1       0.7809

ELEMENT = "Load.S840"
840           1       0.0 +j    0.0        0.0       0.7894
840           2       0.0 +j    0.0        0.0       0.7894
840           3       0.0 +j    0.0        0.0       0.7894
840           0       0.0 +j    0.0        0.0       1.0000
  TERMINAL TOTAL  .     0.0 +j      0.0        0.0       0.7894

ELEMENT = "Load.S844"
844           1       0.1 +j    0.1        0.2       0.7894
844           2       0.1 +j    0.1        0.2       0.7894
844           3       0.1 +j    0.1        0.2       0.7894
844           0       0.0 +j    0.0        0.0       1.0000
  TERMINAL TOTAL  .     0.4 +j      0.3        0.5       0.7894

ELEMENT = "Load.S848"
848           1       0.0 +j    0.0        0.0       0.7808
848           2       0.0 +j    0.0        0.0       0.7806
848           3       0.0 +j    0.0        0.0       0.7812
  TERMINAL TOTAL  .     0.1 +j      0.0        0.1       0.7809

ELEMENT = "Load.S830"
830           1       0.0 +j    0.0        0.0       0.9138
830           2       0.0 +j    0.0        0.0       0.9138
830           3       0.0 +j    0.0        0.0       0.9138
830           0       0.0 +j    0.0        0.0       1.0000
  TERMINAL TOTAL  .     0.0 +j      0.0        0.0       0.9138

ELEMENT = "Load.S890"
890           1       0.1 +j    0.1        0.1       0.8950
890           2       0.1 +j    0.1        0.2       0.8951
890           3       0.1 +j    0.1        0.1       0.8931
  TERMINAL TOTAL  .     0.4 +j      0.2        0.4       0.8944


Total Circuit Losses =    0.1 +j   -0.1
